*** SCH_PATH: /HOME/ISHI_KAI/DOCUMENTS/INVERTER.SCH
.SUBCKT INVERTER A Q VDD VSS
**.PININFO A:B Q:B VDD:B VSS:B
M1 Q A VDD VDD PMOS L=6U W=20U M=1
M2 Q A VSS VSS NMOS L=10U W=20U M=1
.ENDS
*.END
.GLOBAL 0
.END
